[Tree_6_clients]
description = "Tree topology with 5 clients"
network = NetworkTree
NetworkTree.numClients = 6
NetworkTree.stopEventTime = 24h
sim-time-limit = 2d
repeat = 2
NetworkTree.sendMessageMaxTime = 2min
NetworkTree.endPartitionMinTime = 5h
NetworkTree.endPartitionMaxTime = 5h

NetworkTree.askMessageMinTime = 1h
NetworkTree.askMessageMaxTime = 1h

NetworkTree.deleteRoomProbability = 0

[Ring_5_clients]
description = "Ring topology with 5 clients"
network = NetworkRing
NetworkRing.numClients = 5
NetworkRing.stopEventTime = 24h
sim-time-limit = 2d
repeat = 2
NetworkRing.sendMessageMaxTime = 2min
NetworkRing.linkDelay = 2min

[DEMO]
description = "Demo higly available"
network = NetworkTree
NetworkTree.numClients = 6
NetworkTree.stopEventTime = 28h
sim-time-limit = 2d
repeat = 1
NetworkTree.sendMessageMaxTime = 2min
NetworkTree.endPartitionMinTime = 5h
NetworkTree.endPartitionMaxTime = 5h

NetworkTree.askMessageMinTime = 1h
NetworkTree.askMessageMaxTime = 1h