[DEMO]
description = "Demo higly available"
network = NetworkTree
NetworkTree.numClients = 6
NetworkTree.stopEventTime = 28h
sim-time-limit = 2d
repeat = 1
NetworkTree.sendMessageMaxTime = 2min
NetworkTree.endPartitionMinTime = 5h
NetworkTree.endPartitionMaxTime = 5h

NetworkTree.askMessageMinTime = 1h
NetworkTree.askMessageMaxTime = 1h