[Tree_5_clients]
description = "Tree topology with 5 clients"
network = NetworkTree
NetworkTree.numClients = 6
NetworkTree.stopEventTime = 46h
sim-time-limit = 2d
repeat = 2
NetworkTree.sendMessageMaxTime = 2min
NetworkTree.endPartitionMinTime = 5h
NetworkTree.endPartitionMaxTime = 5h

NetworkTree.askMessageTime = 1h