[Ring]
description = "Ring topology"
network = NetworkRing
NetworkRing.numClients = 5
NetworkRing.stopEventTime = 50000
sim-time-limit = 100000s

[FullyConnected]
description = "Fully connected topology"
network = NetworkFully
NetworkFully.numClients = 5
NetworkFully.stopEventTime = 50000
sim-time-limit = 100000s

[Tree]
description = "Tree topology"
network = NetworkTree
NetworkTree.numClients = 5
NetworkTree.stopEventTime = 50000
sim-time-limit = 100000s
